main begin
elements in world:6
elements in world:7
elements in world:8
elements in world:9
elements in world:10
elements in world:11
elements in world:12
elements in world:13
elements in world:14
elements in world:15
elements in world:16
elements in world:17
elements in world:18
elements in world:19
elements in world:20
elements in world:21
elements in world:22
elements in world:23
elements in world:24
elements in world:25
elements in world:26
elements in world:27
elements in world:28
elements in world:29
elements in world:30
elements in world:31
elements in world:32
elements in world:33
elements in world:34
elements in world:35
elements in world:36
elements in world:37
elements in world:38
elements in world:39
elements in world:40
elements in world:41
elements in world:42
elements in world:43
elements in world:44
elements in world:45
elements in world:46
elements in world:47
elements in world:48
elements in world:49
elements in world:50
elements in world:51
elements in world:52
elements in world:53
elements in world:54
elements in world:55
elements in world:56
elements in world:57
elements in world:58
elements in world:59
elements in world:60
elements in world:61
elements in world:62
elements in world:63
elements in world:64
elements in world:65
elements in world:66
elements in world:67
elements in world:68
elements in world:69
elements in world:70
elements in world:71
elements in world:72
elements in world:73
elements in world:74
elements in world:75
elements in world:76
elements in world:77
elements in world:78
elements in world:79
elements in world:80
elements in world:81
elements in world:82
elements in world:83
elements in world:84
elements in world:85
elements in world:86
elements in world:87
elements in world:88
elements in world:89
elements in world:90
elements in world:91
elements in world:92
elements in world:93
elements in world:94
elements in world:95
elements in world:96
elements in world:97
elements in world:98
elements in world:99
elements in world:100
elements in world:101
elements in world:102
elements in world:103
elements in world:104
elements in world:105
main end
Turn 0
step time: 34123192
WARNING: engine turn take more execution time than requested!!! This can cause serius error/data corruption!! duration: 65
unlogged player: 0 observer Player: 0 new observer:0 players: 0
Turn 1
step time: 33657773
WARNING: engine turn take more execution time than requested!!! This can cause serius error/data corruption!! duration: 35
unlogged player: 0 observer Player: 0 new observer:0 players: 0
Turn 2
step time: 18678492
WARNING: engine turn take more execution time than requested!!! This can cause serius error/data corruption!! duration: 20
unlogged player: 0 observer Player: 0 new observer:0 players: 0
Turn 3
step time: 14666180
WARNING: engine turn take more execution time than requested!!! This can cause serius error/data corruption!! duration: 16
unlogged player: 0 observer Player: 0 new observer:0 players: 0
Turn 4
step time: 3211301
Turn 5
step time: 23392499
WARNING: engine turn take more execution time than requested!!! This can cause serius error/data corruption!! duration: 25
unlogged player: 0 observer Player: 0 new observer:0 players: 0
Turn 6
step time: 2590484
Turn 7
step time: 20434511
WARNING: engine turn take more execution time than requested!!! This can cause serius error/data corruption!! duration: 21
unlogged player: 0 observer Player: 0 new observer:0 players: 0
Turn 8
step time: 2287371
Turn 9
step time: 5010763
Turn 10
step time: 1974622
Turn 11
step time: 19078472
WARNING: engine turn take more execution time than requested!!! This can cause serius error/data corruption!! duration: 20
unlogged player: 0 observer Player: 0 new observer:0 players: 0
Turn 12
step time: 1987543
Turn 13
step time: 12111874
Turn 14
step time: 1418756
Turn 15
step time: 1301632
Turn 16
step time: 17369176
WARNING: engine turn take more execution time than requested!!! This can cause serius error/data corruption!! duration: 18
unlogged player: 0 observer Player: 0 new observer:0 players: 0
Turn 17
step time: 1078139
Turn 18
step time: 1110267
Turn 19
step time: 1140159
Turn 20
step time: 1182203
Turn 21
step time: 951307
Turn 22
step time: 953054
Turn 23
step time: 948654
Turn 24
step time: 788718
Turn 25
step time: 522483
Turn 26
step time: 2251752
Turn 27
step time: 354165
Turn 28
step time: 349276
Turn 29
step time: 329791
Turn 30
step time: 72007
Turn 31
step time: 66698
Turn 32
step time: 63346
Turn 33
step time: 73333
Turn 34
step time: 65651
Turn 35
step time: 66489
Turn 36
step time: 71378
Turn 37
step time: 66419
Turn 38
step time: 69283
Turn 39
step time: 70330
Turn 40
step time: 52381
Turn 41
step time: 61809
Turn 42
step time: 57340
Turn 43
step time: 53848
Turn 44
step time: 65860
Turn 45
step time: 72984
Turn 46
step time: 49727
Turn 47
step time: 48470
Turn 48
step time: 53289
Turn 49
step time: 47422
Turn 50
step time: 49378
Turn 51
step time: 75219
Turn 52
step time: 67117
Turn 53
step time: 49028
Turn 54
step time: 63206
Turn 55
step time: 51962
Turn 56
step time: 67676
Turn 57
step time: 73823
Turn 58
step time: 65930
Turn 59
step time: 68724
Turn 60
step time: 53289
Turn 61
step time: 50914
Turn 62
step time: 57480
Turn 63
step time: 53010
Turn 64
step time: 67816
Turn 65
step time: 60553
Turn 66
step time: 58736
Turn 67
step time: 49029
Turn 68
step time: 835860
Turn 69
step time: 63695
Turn 70
step time: 46095
Turn 71
step time: 68025
Turn 72
step time: 53220
Turn 73
step time: 49377
Turn 74
step time: 48120
Turn 75
step time: 59575
Turn 76
step time: 65441
Turn 77
step time: 64323
Turn 78
step time: 64743
Turn 79
step time: 67047
Turn 80
step time: 72355
Turn 81
step time: 75009
Turn 82
step time: 75219
Turn 83
step time: 64533
Turn 84
step time: 69353
Turn 85
step time: 66768
Turn 86
step time: 64394
Turn 87
step time: 69073
Turn 88
step time: 60901
Turn 89
step time: 66349
Turn 90
step time: 68305
Turn 91
step time: 65302
Turn 92
step time: 72425
Turn 93
step time: 68095
Turn 94
step time: 65930
Turn 95
step time: 66559
Turn 96
step time: 65511
Turn 97
step time: 67606
Turn 98
step time: 66629
Turn 99
step time: 66488
Turn 100
step time: 69352
Turn 101
step time: 65302
Turn 102
step time: 65022
Turn 103
step time: 63974
Turn 104
step time: 68095
Turn 105
step time: 71029
Turn 106
step time: 66698
Turn 107
step time: 71238
Turn 108
step time: 70680
Turn 109
step time: 66769
Turn 110
step time: 67258
Turn 111
step time: 793955
Turn 112
step time: 67257
Turn 113
step time: 69981
Connection request from: /127.0.0.1:35208
Turn 114
Connection ok with: /127.0.0.1:35208
step time: 67397
WARNING: engine turn take more execution time than requested!!! This can cause serius error/data corruption!! duration: 41
unlogged player: 1 observer Player: 0 new observer:0 players: 0
Turn 115
step time: 38064
Turn 116
step time: 37505
Turn 117
step time: 64254
Output ok
Input ok
Turn 118
step time: 66838
Turn 119
step time: 69492
Turn 120
step time: 64533
Turn 121
step time: 68933
Turn 122
step time: 69492
Turn 123
step time: 66140
new player logged: nome miapassword
Pending obj: 1
Turn 124
step time: 64323
Turn 125
step time: 67606
Turn 126
step time: 66489
Turn 127
step time: 66419
Turn 128
step time: 68445
Turn 129
step time: 66419
Turn 130
step time: 72565
Turn 131
step time: 65441
Turn 132
step time: 68374
Turn 133
step time: 57200
Turn 134
step time: 71727
Turn 135
step time: 63905
Turn 136
step time: 66908
Turn 137
step time: 65511
Turn 138
step time: 66559
Turn 139
step time: 88698
Turn 140
step time: 65022
Turn 141
step time: 70680
Turn 142
step time: 76895
Turn 143
step time: 71797
Turn 144
step time: 67047
Turn 145
step time: 69073
Turn 146
step time: 65721
Turn 147
step time: 78361
Turn 148
step time: 68723
Turn 149
step time: 76407
Turn 150
step time: 67956
Turn 151
step time: 64743
Turn 152
step time: 74870
Turn 153
step time: 67466
Turn 154
step time: 69283
Turn 155
step time: 81016
Turn 156
step time: 70958
Turn 157
step time: 65442
Turn 158
step time: 70120
Turn 159
step time: 67816
Turn 160
step time: 65930
Turn 161
step time: 69422
Turn 162
step time: 69143
Turn 163
step time: 69562
Turn 164
step time: 66908
Turn 165
step time: 55453
Turn 166
step time: 67258
Turn 167
step time: 65511
Turn 168
step time: 66489
Turn 169
step time: 96172
Turn 170
step time: 66140
Turn 171
step time: 66559
Turn 172
step time: 75569
Turn 173
step time: 87790
Turn 174
step time: 70330
Turn 175
step time: 66978
Turn 176
step time: 68514
Turn 177
step time: 66978
Turn 178
step time: 66978
Turn 179
step time: 66628
Turn 180
step time: 64254
Turn 181
step time: 97289
Turn 182
step time: 72845
Turn 183
step time: 67886
Turn 184
step time: 67746
Turn 185
step time: 69702
Turn 186
step time: 66209
Turn 187
step time: 106717
Turn 188
step time: 67607
Turn 189
step time: 68863
Turn 190
step time: 69422
Turn 191
step time: 74241
Turn 192
step time: 67606
Turn 193
step time: 68863
Turn 194
step time: 66279
Turn 195
step time: 67048
Turn 196
step time: 67536
Turn 197
step time: 62228
Turn 198
step time: 67118
Turn 199
step time: 72077
Turn 200
step time: 58946
Turn 201
step time: 64603
Turn 202
step time: 68864
Turn 203
step time: 71378
Turn 204
step time: 67257
Turn 205
step time: 69562
Turn 206
step time: 65930
Turn 207
step time: 75707
Turn 208
step time: 65930
Turn 209
step time: 68515
Turn 210
step time: 75288
Turn 211
step time: 72845
Turn 212
step time: 70470
Turn 213
step time: 101689
Turn 214
step time: 66628
Turn 215
step time: 72425
Turn 216
step time: 68584
Turn 217
step time: 68654
Turn 218
step time: 71029
Turn 219
step time: 71517
Turn 220
step time: 69631
Turn 221
step time: 65023
Turn 222
step time: 67397
Turn 223
step time: 68724
Turn 224
step time: 67327
Turn 225
step time: 71937
Turn 226
step time: 66838
Turn 227
step time: 73264
Turn 228
step time: 67188
Turn 229
step time: 66349
Turn 230
step time: 68654
Turn 231
step time: 67466
Turn 232
step time: 67397
Turn 233
step time: 62019
Turn 234
step time: 68025
Turn 235
step time: 66350
Turn 236
step time: 67397
Turn 237
step time: 68305
Turn 238
step time: 68863
Turn 239
step time: 71657
Turn 240
step time: 68305
Turn 241
step time: 69492
Turn 242
step time: 66769
Turn 243
step time: 68095
Turn 244
step time: 69422
Turn 245
step time: 66210
Turn 246
step time: 69282
Turn 247
step time: 68584
Turn 248
step time: 64743
Turn 249
step time: 68654
Turn 250
step time: 69422
Turn 251
step time: 68445
Turn 252
step time: 68514
Turn 253
step time: 72845
Turn 254
step time: 69213
Turn 255
step time: 68864
Turn 256
step time: 66489
Turn 257
step time: 66838
Turn 258
step time: 66978
Turn 259
step time: 69842
Turn 260
step time: 67117
Turn 261
step time: 71587
Turn 262
step time: 87022
Turn 263
step time: 68515
Turn 264
step time: 71936
Turn 265
step time: 71308
Turn 266
step time: 73612
Turn 267
step time: 69003
Turn 268
step time: 69841
Turn 269
step time: 71238
Turn 270
step time: 79340
Turn 271
step time: 67257
Turn 272
step time: 77733
Turn 273
step time: 70400
Turn 274
step time: 70470
Turn 275
step time: 71029
Turn 276
step time: 69841
Turn 277
step time: 68374
Turn 278
step time: 75847
Turn 279
step time: 35550
Turn 280
step time: 33175
Turn 281
step time: 71937
Turn 282
step time: 34153
Turn 283
step time: 32756
Turn 284
step time: 32476
Turn 285
step time: 51333
Turn 286
step time: 47841
Turn 287
step time: 33174
Turn 288
step time: 59365
Turn 289
step time: 34920
Turn 290
step time: 33873
Turn 291
step time: 36597
Turn 292
step time: 32686
Turn 293
step time: 66559
Turn 294
step time: 36038
Turn 295
step time: 33663
Turn 296
step time: 34292
Turn 297
step time: 40298
Turn 298
step time: 32476
Turn 299
step time: 32057
Turn 300
step time: 67537
Turn 301
step time: 70260
Turn 302
step time: 33594
Turn 303
step time: 32895
Turn 304
step time: 40577
Turn 305
step time: 57410
Turn 306
step time: 34082
Turn 307
step time: 34292
Turn 308
step time: 30590
Turn 309
step time: 32615
Turn 310
step time: 34781
Turn 311
step time: 73892
Turn 312
step time: 38692
Turn 313
step time: 34152
Turn 314
step time: 55035
Turn 315
step time: 97568
Turn 316
step time: 70400
Turn 317
step time: 33943
Turn 318
step time: 30940
Turn 319
step time: 33733
Turn 320
step time: 32057
Turn 321
step time: 31777
Turn 322
step time: 83739
Turn 323
step time: 62298
Turn 324
step time: 34152
Turn 325
step time: 30591
Turn 326
step time: 66419
Turn 327
step time: 32197
Turn 328
step time: 59645
Turn 329
step time: 31499
Turn 330
step time: 57899
Turn 331
step time: 47562
Turn 332
step time: 31010
Turn 333
step time: 31428
Turn 334
step time: 60204
Turn 335
step time: 33315
Turn 336
step time: 30869
Turn 337
step time: 34432
Turn 338
step time: 61111
Turn 339
step time: 37155
Turn 340
step time: 32546
Turn 341
step time: 30730
Turn 342
step time: 32266
Turn 343
step time: 31358
Turn 344
step time: 36527
Turn 345
step time: 69771
Turn 346
step time: 32197
Turn 347
step time: 31778
Turn 348
step time: 34501
Turn 349
step time: 56572
Turn 350
step time: 32127
Turn 351
step time: 31289
Turn 352
step time: 29892
Turn 353
step time: 31289
Turn 354
step time: 55733
Turn 355
step time: 31708
Turn 356
step time: 30940
Turn 357
step time: 30661
Turn 358
step time: 57968
Turn 359
step time: 56153
Turn 360
step time: 42254
Turn 361
step time: 32895
Turn 362
step time: 29543
Turn 363
step time: 32965
Turn 364
step time: 73263
Turn 365
step time: 71657
Turn 366
step time: 72076
Turn 367
step time: 69911
Turn 368
step time: 71727
Turn 369
step time: 42533
Turn 370
step time: 65441
Turn 371
step time: 68864
Turn 372
step time: 69492
Turn 373
step time: 69912
Turn 374
step time: 70820
Turn 375
step time: 68584
Turn 376
step time: 70679
Turn 377
step time: 69561
Turn 378
step time: 80458
Turn 379
step time: 70819
Turn 380
step time: 66140
Turn 381
step time: 68794
Turn 382
step time: 70400
Turn 383
step time: 73543
Turn 384
step time: 69702
Turn 385
step time: 68305
Turn 386
step time: 71168
Turn 387
step time: 79759
Turn 388
step time: 67537
Turn 389
step time: 72495
Turn 390
step time: 70330
Turn 391
step time: 69073
Turn 392
step time: 68584
Turn 393
step time: 70400
Turn 394
step time: 72425
Turn 395
step time: 67327
Turn 396
step time: 112095
Turn 397
step time: 105112
Turn 398
step time: 68514
Turn 399
step time: 69981
Turn 400
step time: 66489
Turn 401
step time: 93658
Turn 402
step time: 69631
Turn 403
step time: 67606
Turn 404
step time: 69142
Turn 405
step time: 66279
Turn 406
step time: 70749
Turn 407
step time: 70120
Turn 408
step time: 68584
Turn 409
step time: 66768
Turn 410
step time: 68375
Turn 411
step time: 69911
Turn 412
step time: 69981
Turn 413
step time: 69143
Turn 414
step time: 72984
Turn 415
step time: 69212
Turn 416
step time: 70120
Turn 417
step time: 79410
Turn 418
step time: 68863
Turn 419
step time: 68724
Turn 420
step time: 69841
Turn 421
step time: 69143
Turn 422
step time: 71378
Turn 423
step time: 66838
Turn 424
step time: 68095
Turn 425
step time: 66769
Turn 426
step time: 79479
Turn 427
step time: 67676
Turn 428
step time: 71518
Turn 429
step time: 70889
Turn 430
step time: 67397
Turn 431
step time: 69701
Turn 432
step time: 69911
Turn 433
step time: 68514
Turn 434
step time: 71028
Turn 435
step time: 82134
Turn 436
step time: 69631
Turn 437
step time: 91143
Turn 438
step time: 72985
Turn 439
step time: 71936
Turn 440
step time: 68724
Turn 441
step time: 59924
Turn 442
step time: 72565
Turn 443
step time: 62997
Turn 444
step time: 68933
Turn 445
step time: 71168
Turn 446
step time: 67536
Turn 447
step time: 65860
Turn 448
step time: 69212
Turn 449
step time: 92540
Turn 450
step time: 61740
Turn 451
step time: 71587
Turn 452
step time: 69981
Turn 453
step time: 70261
Turn 454
step time: 69143
Turn 455
step time: 66489
Turn 456
step time: 72006
Turn 457
step time: 63625
Turn 458
step time: 70050
Turn 459
step time: 69352
Turn 460
step time: 65791
Turn 461
step time: 70819
Turn 462
step time: 68374
Turn 463
step time: 68654
Turn 464
step time: 67886
Turn 465
step time: 69352
Turn 466
step time: 64184
Turn 467
step time: 68584
Turn 468
step time: 68026
Turn 469
step time: 73683
Turn 470
step time: 66349
Turn 471
step time: 68654
Turn 472
step time: 67537
Turn 473
step time: 68026
Turn 474
step time: 66978
Turn 475
step time: 68724
Turn 476
step time: 67676
Turn 477
step time: 69143
Turn 478
step time: 73752
Turn 479
step time: 66699
Turn 480
step time: 66419
Turn 481
step time: 66559
Turn 482
step time: 69422
Turn 483
step time: 67746
Turn 484
step time: 72774
Turn 485
step time: 68375
Turn 486
step time: 67117
Turn 487
step time: 58667
Turn 488
step time: 71168
Turn 489
step time: 59644
Turn 490
step time: 68933
Turn 491
step time: 70540
Turn 492
step time: 105600
Turn 493
step time: 66419
Turn 494
step time: 77175
Turn 495
step time: 62647
Turn 496
step time: 58457
Turn 497
step time: 64813
Turn 498
step time: 67886
Turn 499
step time: 67117
Turn 500
step time: 65791
Turn 501
step time: 61740
Turn 502
step time: 63276
Turn 503
step time: 68025
Turn 504
step time: 69562
Turn 505
step time: 62298
Turn 506
step time: 58248
Turn 507
step time: 57968
Turn 508
step time: 59435
Turn 509
step time: 68374
Turn 510
step time: 65301
Turn 511
step time: 66838
Turn 512
step time: 70400
Turn 513
step time: 67955
Turn 514
step time: 64114
Turn 515
step time: 66628
Turn 516
step time: 75847
Turn 517
step time: 67607
Turn 518
step time: 68305
Turn 519
step time: 69073
Turn 520
step time: 68724
Turn 521
step time: 67606
Turn 522
step time: 66488
Turn 523
step time: 67956
Turn 524
step time: 70051
Turn 525
step time: 69073
Turn 526
step time: 68864
Turn 527
step time: 76965
Turn 528
step time: 72076
Turn 529
step time: 73473
Turn 530
step time: 67118
Turn 531
step time: 102387
Turn 532
step time: 68305
Turn 533
step time: 81924
Turn 534
step time: 66629
Turn 535
step time: 68514
Turn 536
step time: 69213
Turn 537
step time: 66419
Turn 538
step time: 59086
Turn 539
step time: 68235
Turn 540
step time: 67746
Turn 541
step time: 79200
Turn 542
step time: 94705
Turn 543
step time: 68514
Turn 544
step time: 68723
Turn 545
step time: 65022
Turn 546
step time: 68934
Turn 547
step time: 93028
Turn 548
step time: 67885
Turn 549
step time: 66280
Turn 550
step time: 66629
Turn 551
step time: 74451
Turn 552
step time: 68235
Turn 553
step time: 69352
Turn 554
step time: 67607
Turn 555
step time: 65930
Turn 556
step time: 67536
Turn 557
step time: 67816
Turn 558
step time: 67048
Turn 559
step time: 67327
Turn 560
step time: 70819
Turn 561
step time: 65791
Turn 562
step time: 66489
Turn 563
step time: 66489
Turn 564
step time: 64533
Turn 565
step time: 67187
Turn 566
step time: 67048
Turn 567
step time: 68305
Turn 568
step time: 70749
Turn 569
step time: 67118
Turn 570
step time: 77803
Turn 571
step time: 67258
Turn 572
step time: 67676
Turn 573
step time: 66559
Turn 574
step time: 67746
Turn 575
step time: 78711
Turn 576
step time: 64464
Turn 577
step time: 65581
Turn 578
step time: 66349
Turn 579
step time: 68724
Turn 580
step time: 69632
Turn 581
step time: 87930
Turn 582
step time: 68165
Turn 583
step time: 70610
Turn 584
step time: 68165
Turn 585
step time: 70540
Turn 586
step time: 79689
Turn 587
step time: 68096
Turn 588
step time: 68724
Turn 589
step time: 69981
Turn 590
step time: 80178
Turn 591
step time: 62089
Turn 592
step time: 73542
Turn 593
step time: 77245
Turn 594
step time: 64254
Turn 595
step time: 71308
Turn 596
step time: 83250
Turn 597
step time: 60831
Turn 598
step time: 66699
Turn 599
step time: 65441
Turn 600
step time: 63347
Turn 601
step time: 70749
Turn 602
step time: 69283
Turn 603
step time: 68165
Turn 604
step time: 71937
Turn 605
step time: 66139
Turn 606
step time: 69422
Turn 607
step time: 66628
Turn 608
step time: 66559
Turn 609
step time: 69422
Turn 610
step time: 67607
Turn 611
step time: 67118
Turn 612
step time: 68444
Turn 613
step time: 69702
Turn 614
step time: 65860
Turn 615
step time: 72774
Turn 616
step time: 66838
Turn 617
step time: 68515
Turn 618
step time: 69562
Turn 619
step time: 68375
Turn 620
step time: 89466
Turn 621
step time: 68235
Turn 622
step time: 69492
Turn 623
step time: 70540
Turn 624
step time: 63137
Turn 625
step time: 64953
Turn 626
step time: 66628
Turn 627
step time: 67885
Turn 628
step time: 77104
Turn 629
step time: 82762
Turn 630
step time: 66349
Turn 631
step time: 64464
Turn 632
step time: 67746
Turn 633
step time: 71238
Turn 634
step time: 66558
Turn 635
step time: 66349
Turn 636
step time: 72355
Turn 637
step time: 68235
Turn 638
step time: 64604
Turn 639
step time: 76337
Turn 640
step time: 64394
Turn 641
step time: 67676
Turn 642
step time: 66209
Turn 643
step time: 68166
Turn 644
step time: 65023
Turn 645
step time: 63974
Turn 646
step time: 56222
Turn 647
step time: 57061
Turn 648
step time: 67397
Turn 649
step time: 70889
Turn 650
step time: 65721
Turn 651
step time: 58667
Turn 652
step time: 65650
Turn 653
step time: 58318
Turn 654
step time: 64254
Turn 655
step time: 66698
Turn 656
step time: 65022
Turn 657
step time: 74242
Turn 658
step time: 69422
Turn 659
step time: 69771
Turn 660
step time: 69493
Turn 661
step time: 79410
Turn 662
step time: 70330
Turn 663
step time: 84647
Turn 664
step time: 62927
Turn 665
step time: 68026
Turn 666
step time: 65511
Turn 667
step time: 71937
Turn 668
step time: 30800
Turn 669
step time: 71867
Turn 670
step time: 68584
Turn 671
step time: 75219
Turn 672
step time: 70959
Turn 673
step time: 70260
Turn 674
step time: 77454
Turn 675
step time: 74939
Turn 676
step time: 65581
Turn 677
step time: 67257
Turn 678
step time: 70749
Turn 679
step time: 71029
Turn 680
step time: 69073
Turn 681
step time: 70750
Turn 682
step time: 72006
Turn 683
step time: 68793
Turn 684
step time: 78362
Turn 685
step time: 68374
Turn 686
step time: 66838
Turn 687
step time: 66629
Turn 688
step time: 68724
Turn 689
step time: 69282
Turn 690
step time: 76197
Turn 691
step time: 65790
Turn 692
step time: 69352
Turn 693
step time: 60902
Turn 694
step time: 69143
Turn 695
step time: 76477
Turn 696
step time: 68445
Turn 697
step time: 67187
Turn 698
step time: 68375
Turn 699
step time: 69283
Turn 700
step time: 70330
Turn 701
step time: 67816
Turn 702
step time: 76896
Turn 703
step time: 73822
Turn 704
step time: 70470
Turn 705
step time: 66140
Turn 706
step time: 68863
Turn 707
step time: 70959
Turn 708
step time: 67257
Turn 709
step time: 69143
Turn 710
step time: 67816
Turn 711
step time: 68793
Turn 712
step time: 66280
Turn 713
step time: 65162
Turn 714
step time: 67118
Turn 715
step time: 67257
Turn 716
step time: 67816
Turn 717
step time: 77035
Turn 718
step time: 68514
Turn 719
step time: 65302
Turn 720
step time: 69422
Turn 721
step time: 64742
Turn 722
step time: 65860
Turn 723
step time: 67606
Turn 724
step time: 69352
Turn 725
step time: 97499
Turn 726
step time: 67537
Turn 727
step time: 69492
Turn 728
step time: 83740
Turn 729
step time: 74939
Turn 730
step time: 64674
Turn 731
step time: 67816
Turn 732
step time: 66489
Turn 733
step time: 67677
Turn 734
step time: 77803
Turn 735
step time: 66349
Turn 736
step time: 68724
Turn 737
step time: 67815
Turn 738
step time: 68723
Turn 739
step time: 77804
Turn 740
step time: 71447
Turn 741
step time: 68514
Turn 742
step time: 66698
Turn 743
step time: 68585
Turn 744
step time: 73124
Turn 745
step time: 69073
Turn 746
step time: 65860
Turn 747
step time: 68934
Turn 748
step time: 35759
Turn 749
step time: 207988
Turn 750
step time: 85765
Turn 751
step time: 70889
Turn 752
step time: 57339
Turn 753
step time: 73822
Turn 754
step time: 55105
Turn 755
step time: 53988
Turn 756
step time: 57968
Turn 757
step time: 54895
Turn 758
step time: 75917
Turn 759
step time: 59435
Turn 760
step time: 76686
Turn 761
step time: 54336
Turn 762
step time: 55594
Turn 763
step time: 55943
Turn 764
step time: 81853
Turn 765
step time: 57409
Turn 766
step time: 54896
Turn 767
step time: 54895
Turn 768
step time: 54476
Turn 769
step time: 104972
Turn 770
step time: 55035
Turn 771
step time: 56083
Turn 772
step time: 58737
Turn 773
step time: 58876
Turn 774
step time: 50076
Turn 775
step time: 55803
Turn 776
step time: 54895
Turn 777
step time: 56571
Turn 778
step time: 52870
Ship request arrived
creating ship1
elements in world:106
Created ship 100 for player: nome miapassword
Pending obj: 1
WARNING: engine turn take more execution time than requested!!! This can cause serius error/data corruption!! duration: 130
unlogged player: 0 observer Player: 0 new observer:0 players: 1
Turn 779
100 see 10
100 see 20
100 see 0
100 see 9
100 see 29
100 see 39
100 see 59
100 see 49
100 see 79
100 see 89
100 see 99
100 see 69
100 see 19
100 see 8
100 see 38
100 see 48
100 see 28
100 see 18
100 see 58
100 see 68
100 see 78
100 see 98
100 see 88
100 see 7
100 see 17
100 see 97
100 see 87
100 see 77
100 see 67
100 see 57
100 see 47
100 see 37
100 see 27
100 see 6
100 see 46
100 see 36
100 see 76
100 see 86
100 see 16
100 see 66
100 see 56
100 see 26
100 see 96
100 see 5
100 see 25
100 see 35
100 see 95
100 see 85
100 see 75
100 see 15
100 see 65
100 see 55
100 see 45
100 see 4
100 see 44
100 see 14
100 see 74
100 see 34
100 see 64
100 see 54
100 see 24
100 see 84
100 see 3
100 see 13
100 see 23
100 see 73
100 see 63
100 see 33
100 see 53
100 see 43
100 see 2
100 see 42
100 see 12
100 see 52
100 see 32
100 see 22
100 see 62
100 see 1
100 see 21
100 see 51
100 see 31
100 see 41
100 see 11
step time: 92949306
WARNING: engine turn take more execution time than requested!!! This can cause serius error/data corruption!! duration: 93
unlogged player: 0 observer Player: 0 new observer:0 players: 1
Turn 780
step time: 32511187
WARNING: engine turn take more execution time than requested!!! This can cause serius error/data corruption!! duration: 33
unlogged player: 0 observer Player: 0 new observer:0 players: 1
Turn 781
step time: 2812718
Turn 782
step time: 22983160
WARNING: engine turn take more execution time than requested!!! This can cause serius error/data corruption!! duration: 24
unlogged player: 0 observer Player: 0 new observer:0 players: 1
Turn 783
step time: 2215644
Turn 784
step time: 2512890
Turn 785
step time: 2256921
Turn 786
step time: 2219556
Turn 787
step time: 58955539
WARNING: engine turn take more execution time than requested!!! This can cause serius error/data corruption!! duration: 59
unlogged player: 0 observer Player: 0 new observer:0 players: 1
Turn 788
step time: 2058292
Turn 789
step time: 2007308
Turn 790
step time: 26185241
WARNING: engine turn take more execution time than requested!!! This can cause serius error/data corruption!! duration: 27
unlogged player: 0 observer Player: 0 new observer:0 players: 1
Turn 791
step time: 1205949
Turn 792
step time: 1176406
Turn 793
step time: 1197079
Turn 794
step time: 1169842
Turn 795
step time: 29593500
WARNING: engine turn take more execution time than requested!!! This can cause serius error/data corruption!! duration: 30
unlogged player: 0 observer Player: 0 new observer:0 players: 1
Turn 796
step time: 658324
Turn 797
step time: 661816
Turn 798
step time: 650641
Turn 799
step time: 638000
WARNING: engine turn take more execution time than requested!!! This can cause serius error/data corruption!! duration: 29
unlogged player: 0 observer Player: 0 new observer:0 players: 1
Turn 800
step time: 370787
Turn 801
step time: 11159031
Turn 802
step time: 182285
Turn 803
step time: 167619
Turn 804
step time: 165035
Turn 805
step time: 162730
Turn 806
step time: 169714
Turn 807
step time: 168807
Turn 808
step time: 162730
Turn 809
step time: 71029
Turn 810
step time: 73124
Turn 811
step time: 99315
Turn 812
step time: 98197
Turn 813
step time: 107346
Turn 814
step time: 67397
Turn 815
step time: 69352
Turn 816
step time: 71937
Turn 817
step time: 70190
Turn 818
step time: 71029
Turn 819
step time: 72077
Turn 820
step time: 71098
Turn 821
step time: 70400
Turn 822
step time: 69841
Turn 823
step time: 63486
Turn 824
step time: 92470
Turn 825
step time: 47003
Turn 826
step time: 69632
Turn 827
step time: 70260
Turn 828
step time: 69213
Turn 829
step time: 70888
Turn 830
step time: 73892
Turn 831
step time: 69492
Turn 832
step time: 72565
Turn 833
step time: 94914
Turn 834
step time: 70330
Turn 835
step time: 74381
Turn 836
step time: 69632
Turn 837
step time: 68933
Turn 838
step time: 71797
Turn 839
step time: 71867
Turn 840
step time: 69283
Turn 841
step time: 71308
Turn 842
step time: 69701
Turn 843
step time: 68445
Turn 844
step time: 69003
Turn 845
step time: 68305
Turn 846
step time: 76196
Turn 847
step time: 74661
Turn 848
step time: 91073
Turn 849
step time: 72216
Turn 850
step time: 65092
Turn 851
step time: 70679
Turn 852
step time: 96661
Turn 853
step time: 69283
Turn 854
step time: 68305
Turn 855
step time: 71936
Turn 856
step time: 68654
Turn 857
step time: 71169
Turn 858
step time: 70051
Turn 859
step time: 70191
Turn 860
step time: 69772
Turn 861
step time: 70260
Turn 862
step time: 75428
Turn 863
step time: 71308
Turn 864
step time: 75708
Turn 865
step time: 69562
Turn 866
step time: 73683
Turn 867
step time: 69073
Turn 868
step time: 67327
Turn 869
step time: 69492
Turn 870
step time: 94286
Turn 871
step time: 69143
Turn 872
step time: 74870
Turn 873
step time: 70121
Turn 874
step time: 69073
Turn 875
step time: 70120
Turn 876
step time: 74031
Turn 877
step time: 73054
Turn 878
step time: 69841
Turn 879
step time: 71797
Turn 880
step time: 73682
Turn 881
step time: 70959
Turn 882
step time: 77035
Turn 883
step time: 72984
Turn 884
step time: 69282
Turn 885
step time: 71098
Turn 886
step time: 69562
Turn 887
step time: 82902
Turn 888
step time: 73543
Turn 889
step time: 71448
Turn 890
step time: 70120
Turn 891
step time: 70191
Turn 892
step time: 69073
Turn 893
step time: 72775
Turn 894
step time: 70889
Turn 895
step time: 74032
Turn 896
step time: 75289
Turn 897
step time: 70679
Turn 898
step time: 71168
Turn 899
step time: 90933
Turn 900
step time: 69911
Turn 901
step time: 71518
Turn 902
step time: 71866
Turn 903
step time: 70470
Turn 904
step time: 92889
Turn 905
step time: 69282
Turn 906
step time: 68654
Turn 907
step time: 68375
Turn 908
step time: 71099
Turn 909
step time: 68934
Turn 910
step time: 69282
Turn 911
step time: 69701
Turn 912
step time: 101479
Turn 913
step time: 68723
Executing action
executing action: 1.0 -1.0 0.0
before: x: 0.005 y: 5.0 xV: 0.0 yV: 0.0 aV: 0.0 a: 0.0 torque:0.0
after: x: 0.005 y: 5.0 xV: 0.39788735 yV: -0.39788735 aV: 0.0 a: 0.0 torque:0.0
WARNING: engine turn take more execution time than requested!!! This can cause serius error/data corruption!! duration: 25
unlogged player: 0 observer Player: 0 new observer:0 players: 1
Turn 914
step time: 276082
Turn 915
step time: 164476
Turn 916
step time: 220209
Turn 917
100 see 30
step time: 431760
Turn 918
step time: 277270
Turn 919
step time: 216019
Turn 920
step time: 214971
Turn 921
step time: 281879
Turn 922
step time: 232432
Turn 923
step time: 231663
Turn 924
step time: 221326
Turn 925
step time: 224051
Turn 926
100 see 83
100 see 72
step time: 294731
Turn 927
step time: 220139
Turn 928
step time: 346901
Turn 929
step time: 2766414
Turn 930
step time: 225588
Turn 931
step time: 220280
Turn 932
step time: 290051
Turn 933
9 collide 100
step time: 3874236
Turn 934
step time: 355561
Turn 935
step time: 225448
Turn 936
100 see 40
step time: 279644
Turn 937
100 see 94
100 see 61
step time: 461162
Turn 938
step time: 275803
Turn 939
step time: 273988
Turn 940
step time: 358007
Turn 941
step time: 258623
Turn 942
step time: 235854
Turn 943
step time: 218813
Turn 944
step time: 244654
Turn 945
step time: 195905
Turn 946
step time: 230825
Turn 947
19 collide 100
step time: 326368
Turn 948
step time: 400401
Turn 949
step time: 281181
Turn 950
step time: 267771
Turn 951
step time: 281809
Turn 952
step time: 281880
Turn 953
step time: 297942
Turn 954
step time: 278108
Turn 955
step time: 281041
Turn 956
step time: 285162
Turn 957
step time: 261276
Turn 958
step time: 282718
Turn 959
100 see 50
step time: 324413
Turn 960
step time: 411994
Turn 961
8 collide 9
step time: 317988
Turn 962
step time: 494965
Turn 963
step time: 472406
Turn 964
100 see 82
step time: 435809
Turn 965
step time: 327906
Turn 966
18 collide 19
step time: 376095
Turn 967
19 collide 29
step time: 385733
Turn 968
step time: 470032
Turn 969
100 see 93
step time: 419328
Turn 970
100 see 71
step time: 384965
Turn 971
step time: 339010
Turn 972
step time: 339568
Turn 973
step time: 365760
Turn 974
step time: 330070
Turn 975
step time: 339778
Turn 976
step time: 307511
Turn 977
step time: 254431
Turn 978
step time: 287396
Turn 979
step time: 293822
Turn 980
step time: 289073
Turn 981
step time: 295638
Turn 982
step time: 288375
Turn 983
19 collide 28
step time: 359403
Turn 984
step time: 324413
Turn 985
step time: 342363
Turn 986
step time: 315823
Turn 987
100 see 60
step time: 368133
Turn 988
step time: 309537
Turn 989
step time: 313867
Turn 990
step time: 308350
Turn 991
step time: 1541326
Turn 992
step time: 449499
Turn 993
step time: 305276
Turn 994
17 collide 18
step time: 509841
Turn 995
step time: 410947
Turn 996
29 collide 39
step time: 401727
Turn 997
step time: 376444
Turn 998
step time: 300736
Turn 999
step time: 585200
Turn 1000
step time: 348089
Turn 1001
step time: 367854
Turn 1002
step time: 450267
Turn 1003
28 collide 38
step time: 462140
Turn 1004
27 collide 28
step time: 437695
Turn 1005
step time: 435600
Turn 1006
step time: 390762
Turn 1007
100 see 92
100 see 81
step time: 501739
Turn 1008
step time: 402635
Turn 1009
step time: 287816
Turn 1010
step time: 446705
Turn 1011
step time: 394534
Turn 1012
step time: 403822
Turn 1013
step time: 387829
Turn 1014
step time: 342222
Turn 1015
step time: 372743
Turn 1016
step time: 348298
Turn 1017
step time: 524509
Turn 1018
step time: 362197
Turn 1019
7 collide 8
step time: 425892
Turn 1020
100 see 70
step time: 444958
Turn 1021
28 collide 37
step time: 490355
Turn 1022
step time: 387479
Turn 1023
step time: 450127
Turn 1024
step time: 420445
Turn 1025
step time: 428546
Turn 1026
step time: 388736
Turn 1027
step time: 375187
Turn 1028
step time: 380984
Turn 1029
step time: 332445
Turn 1030
step time: 378260
Turn 1031
step time: 351721
Turn 1032
step time: 562572
Turn 1033
38 collide 48
step time: 616839
Turn 1034
26 collide 27
step time: 581499
Turn 1035
step time: 416534
Turn 1036
step time: 401657
Turn 1037
step time: 402984
Turn 1038
step time: 431340
Turn 1039
8 collide 18
step time: 718877
Turn 1040
step time: 405778
Turn 1041
step time: 432247
Turn 1042
step time: 410178
Turn 1043
36 collide 37
37 collide 47
8 collide 9
step time: 578635
Turn 1044
19 collide 100
step time: 484769
Turn 1045
step time: 461930
Turn 1046
step time: 402705
Turn 1047
step time: 396210
Turn 1048
step time: 631854
Turn 1049
16 collide 17
step time: 481276
Turn 1050
100 see 91
step time: 448730
Turn 1051
step time: 411156
Turn 1052
17 collide 18
step time: 447682
Turn 1053
8 collide 9
step time: 575213
Turn 1054
39 collide 49
step time: 476736
Turn 1055
step time: 424705
Turn 1056
step time: 330349
Turn 1057
100 see 80
step time: 419257
Turn 1058
step time: 425054
Turn 1059
step time: 418419
Turn 1060
step time: 406546
Turn 1061
step time: 419607
Turn 1062
step time: 400400
Turn 1063
step time: 407454
Turn 1064
step time: 445308
Turn 1065
37 collide 46
step time: 661467
Turn 1066
step time: 409479
Turn 1067
step time: 432108
Turn 1068
step time: 403124
Turn 1069
19 collide 28
step time: 441955
Turn 1070
step time: 380915
Turn 1071
29 collide 39
step time: 491682
Turn 1072
step time: 508235
Turn 1073
step time: 528630
Turn 1074
step time: 383010
Turn 1075
step time: 391460
Turn 1076
17 collide 27
step time: 498248
Turn 1077
step time: 604546
Turn 1078
35 collide 36
17 collide 18
step time: 1620039
Turn 1079
47 collide 57
step time: 457600
Turn 1080
38 collide 39
step time: 465562
Turn 1081
8 collide 18
step time: 447752
Turn 1082
19 collide 27
step time: 469682
Turn 1083
step time: 331327
Turn 1084
step time: 329022
Turn 1085
step time: 422051
Turn 1086
step time: 520388
Turn 1087
26 collide 27
step time: 486165
Turn 1088
step time: 466331
Turn 1089
step time: 441188
Turn 1090
step time: 444749
Turn 1091
step time: 469683
Turn 1092
step time: 535333
Turn 1093
48 collide 58
step time: 594070
Turn 1094
25 collide 26
step time: 510121
Turn 1095
19 collide 100
step time: 729841
Turn 1096
step time: 472826
Turn 1097
38 collide 48
step time: 655042
Turn 1098
100 see 90
step time: 468146
Turn 1099
step time: 456343
Turn 1100
step time: 342292
Turn 1101
45 collide 46
46 collide 56
step time: 510679
Turn 1102
step time: 494127
Turn 1103
step time: 534076
Turn 1104
step time: 443701
Turn 1105
step time: 480089
Turn 1106
step time: 479740
Turn 1107
step time: 465981
Turn 1108
step time: 451943
Turn 1109
step time: 473803
Turn 1110
step time: 443003
Turn 1111
step time: 458578
Turn 1112
step time: 452362
Turn 1113
step time: 490915
Turn 1114
step time: 452362
Turn 1115
step time: 462419
Turn 1116
step time: 455226
Turn 1117
step time: 413392
Turn 1118
step time: 444958
Turn 1119
step time: 434972
Turn 1120
step time: 424496
Turn 1121
step time: 428755
Turn 1122
step time: 523250
Turn 1123
6 collide 7
step time: 596654
Turn 1124
step time: 479390
Turn 1125
26 collide 36
step time: 521855
Turn 1126
step time: 464793
Turn 1127
step time: 1723544
Turn 1128
step time: 541340
Turn 1129
15 collide 16
7 collide 8
step time: 543644
Turn 1130
47 collide 48
step time: 513753
Turn 1131
16 collide 17
step time: 529955
Turn 1132
step time: 420584
Turn 1133
38 collide 48
step time: 558940
Turn 1134
38 collide 39
step time: 508444
Turn 1135
step time: 431340
Turn 1136
46 collide 55
step time: 497060
Turn 1137
8 collide 18
26 collide 27
step time: 550140
Turn 1138
step time: 473035
Turn 1139
28 collide 37
step time: 536591
Turn 1140
step time: 475131
Turn 1141
step time: 467936
Turn 1142
step time: 471010
Turn 1143
step time: 472336
Turn 1144
step time: 496851
Turn 1145
step time: 500552
Turn 1146
step time: 637442
Turn 1147
step time: 475060
Turn 1148
step time: 563829
Turn 1149
34 collide 35
step time: 600355
Turn 1150
step time: 1714045
Turn 1151
57 collide 67
step time: 504813
Turn 1152
35 collide 36
step time: 564108
Turn 1153
47 collide 57
step time: 781524
Turn 1154
step time: 483861
Turn 1155
step time: 526812
Turn 1156
26 collide 27
step time: 662095
Turn 1157
49 collide 59
step time: 655670
Turn 1158
56 collide 66
step time: 572209
Turn 1159
44 collide 45
38 collide 39
step time: 581428
Turn 1160
step time: 596654
Turn 1161
step time: 589949
Turn 1162
19 collide 36
step time: 539664
Turn 1163
39 collide 49
step time: 567810
Turn 1164
step time: 600076
Turn 1165
step time: 485327
Turn 1166
step time: 553772
Turn 1167
step time: 488609
Turn 1168
step time: 509631
Turn 1169
step time: 661817
Turn 1170
24 collide 25
step time: 525625
Turn 1171
26 collide 27
step time: 1723754
Turn 1172
step time: 482533
Turn 1173
step time: 470521
Turn 1174
28 collide 100
step time: 524857
Turn 1175
step time: 487492
Turn 1176
19 collide 100
step time: 530584
Turn 1177
step time: 518292
Turn 1178
step time: 512286
Turn 1179
19 collide 36
step time: 531911
Turn 1180
35 collide 36
8 collide 18
step time: 558171
Turn 1181
34 collide 35
26 collide 36
28 collide 37
step time: 907238
Turn 1182
58 collide 68
step time: 759385
Turn 1183
28 collide 47
38 collide 48
step time: 708959
Turn 1184
step time: 519549
Turn 1185
step time: 800451
Turn 1186
step time: 534146
Turn 1187
step time: 512146
Turn 1188
step time: 509142
Turn 1189
7 collide 18
step time: 603429
Turn 1190
step time: 594489
Turn 1191
step time: 630597
Turn 1192
step time: 507187
Turn 1193
54 collide 55
38 collide 39
step time: 670546
Turn 1194
55 collide 65
step time: 562641
Turn 1195
step time: 709517
Turn 1196
step time: 517174
Turn 1197
step time: 559848
Turn 1198
35 collide 45
step time: 548394
Turn 1199
step time: 497200
Turn 1200
34 collide 35
step time: 800242
Turn 1201
33 collide 34
step time: 535613
Turn 1202
step time: 500832
Turn 1203
35 collide 36
step time: 570743
Turn 1204
step time: 617327
Turn 1205
step time: 535404
Turn 1206
step time: 502718
Turn 1207
step time: 511797
Turn 1208
step time: 502438
Turn 1209
step time: 497060
Turn 1210
step time: 491123
Turn 1211
step time: 515988
Turn 1212
step time: 482464
Turn 1213
step time: 426032
Turn 1214
step time: 575422
Turn 1215
step time: 492661
Turn 1216
56 collide 57
step time: 430571
Turn 1217
step time: 469892
Turn 1218
step time: 459136
Turn 1219
step time: 480857
Turn 1220
step time: 474571
Turn 1221
57 collide 67
step time: 602241
Turn 1222
step time: 459626
Turn 1223
step time: 462908
Turn 1224
step time: 458089
Turn 1225
step time: 460743
Turn 1226
step time: 581358
Turn 1227
step time: 460254
Turn 1228
step time: 549721
Turn 1229
step time: 464235
Turn 1230
step time: 463816
Turn 1231
step time: 463187
Turn 1232
step time: 555727
Turn 1233
step time: 472477
Turn 1234
28 collide 56
16 collide 27
step time: 542597
Turn 1235
56 collide 66
step time: 769372
Turn 1236
step time: 613416
Turn 1237
14 collide 15
67 collide 77
28 collide 100
step time: 605035
Turn 1238
step time: 506838
Turn 1239
25 collide 36
step time: 778311
Turn 1240
37 collide 45
step time: 562222
Turn 1241
step time: 647639
Turn 1242
66 collide 76
44 collide 45
step time: 613416
Turn 1243
28 collide 56
step time: 669988
Turn 1244
55 collide 64
step time: 590787
Turn 1245
35 collide 45
step time: 579823
Turn 1246
step time: 532260
Turn 1247
step time: 535962
Turn 1248
step time: 614673
Turn 1249
step time: 470799
Turn 1250
step time: 520108
Turn 1251
step time: 501181
Turn 1252
step time: 1504939
Turn 1253
step time: 621657
Turn 1254
32 collide 33
step time: 603220
Turn 1255
step time: 524159
Turn 1256
34 collide 35
step time: 565924
Turn 1257
step time: 535822
Turn 1258
step time: 514660
Turn 1259
step time: 616838
Turn 1260
43 collide 44
step time: 832019
Turn 1261
76 collide 86
step time: 651899
Turn 1262
23 collide 24
66 collide 76
step time: 650362
Turn 1263
step time: 641771
Turn 1264
47 collide 57
step time: 615511
Turn 1265
28 collide 56
38 collide 49
step time: 749188
Turn 1266
5 collide 6
step time: 594908
Turn 1267
6 collide 7
step time: 628153
Turn 1268
step time: 716502
Turn 1269
step time: 576330
Turn 1270
37 collide 100
step time: 6621721
Turn 1271
step time: 578007
Turn 1272
step time: 620260
Turn 1273
47 collide 58
step time: 606920
Turn 1274
37 collide 46
step time: 747372
Turn 1275
37 collide 45
step time: 718178
Turn 1276
53 collide 54
34 collide 35
step time: 753866
Turn 1277
step time: 611810
Turn 1278
65 collide 75
step time: 659092
Turn 1279
35 collide 36
step time: 779499
Turn 1280
step time: 615930
Turn 1281
step time: 732216
Turn 1282
step time: 598750
Turn 1283
step time: 612369
Turn 1284
step time: 605315
Turn 1285
step time: 575492
Turn 1286
25 collide 36
step time: 748838
Turn 1287
step time: 693943
Turn 1288
86 collide 96
step time: 1772431
Turn 1289
68 collide 78
step time: 679835
Turn 1290
65 collide 66
step time: 681231
Turn 1291
step time: 831250
Turn 1292
step time: 626197
Turn 1293
66 collide 75
step time: 639536
Turn 1294
step time: 666775
Turn 1295
step time: 648965
Turn 1296
step time: 578984
Turn 1297
66 collide 76
56 collide 66
step time: 694642
Turn 1298
step time: 673340
Turn 1299
step time: 797447
Turn 1300
42 collide 43
step time: 631854
Turn 1301
step time: 588692
Turn 1302
44 collide 45
step time: 601613
Turn 1303
step time: 559219
Turn 1304
step time: 545740
Turn 1305
step time: 1707061
Turn 1306
step time: 642819
Turn 1307
59 collide 69
step time: 822939
Turn 1308
step time: 592394
Turn 1309
step time: 590019
Turn 1310
step time: 594628
Turn 1311
step time: 599936
Turn 1312
48 collide 49
step time: 622774
Turn 1313
step time: 730261
Turn 1314
31 collide 32
step time: 626895
Turn 1315
step time: 719365
Turn 1316
33 collide 34
step time: 769861
Turn 1317
step time: 621309
Turn 1318
28 collide 46
63 collide 64
64 collide 74
6 collide 17
step time: 709587
Turn 1319
step time: 623962
Turn 1320
step time: 519688
Turn 1321
step time: 686400
Turn 1322
step time: 612718
Turn 1323
step time: 688076
Turn 1324
28 collide 56
step time: 1849677
Turn 1325
step time: 745766
Turn 1326
step time: 728934
Turn 1327
step time: 611949
Turn 1328
step time: 615931
Turn 1329
46 collide 55
step time: 646241
Turn 1330
28 collide 46
step time: 644146
Turn 1331
28 collide 56
step time: 751143
Turn 1332
step time: 601892
Turn 1333
step time: 693175
Turn 1334
step time: 608806
Turn 1335
step time: 689752
Turn 1336
15 collide 25
44 collide 54
step time: 656368
Turn 1337
19 collide 45
step time: 685492
Turn 1338
step time: 743042
Turn 1339
step time: 596514
Turn 1340
25 collide 36
step time: 647009
Turn 1341
74 collide 75
step time: 648197
Turn 1342
step time: 616908
Turn 1343
64 collide 74
46 collide 100
step time: 665378
Turn 1344
44 collide 45
46 collide 55
step time: 686959
Turn 1345
step time: 744647
Turn 1346
41 collide 42
63 collide 64
step time: 806876
Turn 1347
77 collide 87
step time: 675784
Turn 1348
46 collide 65
43 collide 44
57 collide 67
step time: 753657
Turn 1349
step time: 650293
Turn 1350
44 collide 54
15 collide 16
step time: 826850
Turn 1351
step time: 650921
Turn 1352
15 collide 25
step time: 854997
Turn 1353
step time: 688915
Turn 1354
step time: 640235
Turn 1355
step time: 628432
Turn 1356
step time: 611809
Turn 1357
step time: 748140
Turn 1358
step time: 594140
Turn 1359
step time: 1729829
Turn 1360
step time: 717968
Turn 1361
28 collide 65
step time: 786692
Turn 1362
step time: 639956
Turn 1363
66 collide 75
75 collide 85
step time: 665448
Turn 1364
step time: 607200
Turn 1365
37 collide 54
64 collide 73
step time: 697156
Turn 1366
step time: 744369
Turn 1367
step time: 775518
Turn 1368
13 collide 14
44 collide 54
53 collide 54
step time: 719505
Turn 1369
56 collide 66
step time: 770279
Turn 1370
step time: 647289
Turn 1371
step time: 669848
Turn 1372
step time: 889778
Turn 1373
step time: 874064
Turn 1374
step time: 656508
Turn 1375
step time: 609714
Turn 1376
step time: 652387
Turn 1377
14 collide 15
step time: 807505
Turn 1378
22 collide 23
step time: 782501
Turn 1379
48 collide 59
step time: 762946
Turn 1380
step time: 941670
Turn 1381
19 collide 37
step time: 805060
Turn 1382
65 collide 75
step time: 727956
Turn 1383
75 collide 85
28 collide 65
step time: 828736
Turn 1384
step time: 764482
Turn 1385
step time: 650990
Turn 1386
step time: 737873
Turn 1387
30 collide 31
76 collide 87
step time: 812323
Turn 1388
step time: 656927
Turn 1389
step time: 649314
Turn 1390
step time: 795214
Turn 1391
52 collide 53
step time: 710565
Turn 1392
66 collide 85
step time: 727048
Turn 1393
56 collide 66
step time: 828597
Turn 1394
step time: 694363
Turn 1395
step time: 748069
Turn 1396
74 collide 84
24 collide 25
step time: 732844
Turn 1397
step time: 839353
Turn 1398
23 collide 34
step time: 728374
Turn 1399
62 collide 63
34 collide 35
step time: 742762
Turn 1400
step time: 691499
Turn 1401
step time: 780616
Turn 1402
40 collide 41
step time: 784248
Turn 1403
step time: 716572
Turn 1404
64 collide 74
step time: 717270
Turn 1405
step time: 806458
Turn 1406
step time: 679555
Turn 1407
step time: 673898
Turn 1408
step time: 676692
Turn 1409
step time: 649873
Turn 1410
step time: 685003
Turn 1411
39 collide 49
step time: 726698
Turn 1412
step time: 883772
Turn 1413
78 collide 88
step time: 811555
Turn 1414
step time: 766229
Turn 1415
step time: 670197
Turn 1416
step time: 645054
Turn 1417
step time: 823220
Turn 1418
85 collide 95
step time: 712940
Turn 1419
step time: 896413
Turn 1420
step time: 669358
Turn 1421
step time: 654693
Turn 1422
step time: 755822
Turn 1423
step time: 745555
Turn 1424
4 collide 5
55 collide 63
step time: 2063391
Turn 1425
62 collide 63
step time: 736127
Turn 1426
step time: 820286
Turn 1427
73 collide 83
75 collide 84
step time: 823289
Turn 1428
44 collide 53
step time: 840191
Turn 1429
72 collide 73
step time: 742902
Turn 1430
step time: 688844
Turn 1431
65 collide 66
5 collide 6
step time: 847593
Turn 1432
step time: 699391
Turn 1433
step time: 762458
Turn 1434
step time: 791581
Turn 1435
step time: 835371
Turn 1436
14 collide 25
28 collide 65
step time: 885378
Turn 1437
step time: 738362
Turn 1438
25 collide 36
step time: 750793
Turn 1439
step time: 822171
Turn 1440
step time: 806527
Turn 1441
33 collide 43
step time: 824476
Turn 1442
step time: 727466
Turn 1443
54 collide 55
32 collide 33
16 collide 17
step time: 919111
Turn 1444
42 collide 43
33 collide 34
15 collide 16
step time: 829645
Turn 1445
53 collide 63
step time: 696736
Turn 1446
step time: 739619
Turn 1447
step time: 738223
Turn 1448
step time: 753587
Turn 1449
step time: 653365
Turn 1450
step time: 818890
Turn 1451
step time: 776635
Turn 1452
step time: 723905
Turn 1453
step time: 822730
Turn 1454
51 collide 52
step time: 2049352
Turn 1455
step time: 723067
Turn 1456
step time: 837886
Turn 1457
step time: 732076
Turn 1458
step time: 879721
Turn 1459
step time: 804571
Turn 1460
23 collide 34
step time: 782781
Turn 1461
step time: 725092
Turn 1462
step time: 711124
Turn 1463
step time: 713848
Turn 1464
step time: 680743
Turn 1465
step time: 687447
Turn 1466
step time: 724953
Turn 1467
53 collide 54
step time: 822450
Turn 1468
step time: 715244
Turn 1469
46 collide 74
step time: 1923918
Turn 1470
step time: 826082
Turn 1471
61 collide 62
69 collide 79
step time: 932311
Turn 1472
step time: 747512
Turn 1473
46 collide 100
step time: 736197
Turn 1474
step time: 1014306
Turn 1475
step time: 809041
Turn 1476
84 collide 94
59 collide 69
step time: 810787
Turn 1477
step time: 723626
Turn 1478
step time: 1056419
Turn 1479
step time: 744020
Turn 1480
step time: 718178
Turn 1481
step time: 823708
Turn 1482
25 collide 26
step time: 782223
Turn 1483
step time: 865822
Turn 1484
step time: 1882851
Turn 1485
step time: 773492
Turn 1486
step time: 681721
Turn 1487
step time: 645822
Turn 1488
74 collide 84
74 collide 83
step time: 764483
Turn 1489
84 collide 94
step time: 866311
Turn 1490
87 collide 97
step time: 871549
Turn 1491
step time: 833416
Turn 1492
step time: 702812
Turn 1493
58 collide 59
step time: 1030997
Turn 1494
73 collide 82
58 collide 69
step time: 757708
Turn 1495
64 collide 73
step time: 865474
Turn 1496
step time: 974705
Turn 1497
83 collide 93
step time: 796261
Turn 1498
43 collide 44
step time: 894039
Turn 1499
46 collide 100
step time: 2056547
Turn 1500
step time: 952216
Turn 1501
24 collide 35
33 collide 43
42 collide 43
step time: 810299
Turn 1502
step time: 744788
Turn 1503
step time: 768115
Turn 1504
step time: 718527
Turn 1505
step time: 750026
Turn 1506
step time: 801358
Turn 1507
step time: 733823
Turn 1508
step time: 838934
Turn 1509
21 collide 22
step time: 767206
Turn 1510
step time: 794864
Turn 1511
step time: 738292
Turn 1512
76 collide 97
step time: 754495
Turn 1513
step time: 767905
Turn 1514
step time: 2059340
Turn 1515
step time: 804013
Turn 1516
step time: 731028
Turn 1517
47 collide 58
step time: 905493
Turn 1518
step time: 780057
Turn 1519
step time: 718038
Turn 1520
step time: 695828
Turn 1521
step time: 714615
Turn 1522
step time: 834883
Turn 1523
12 collide 13
step time: 730330
Turn 1524
step time: 692895
Turn 1525
13 collide 14
step time: 771537
Turn 1526
step time: 793047
Turn 1527
73 collide 74
step time: 706864
Turn 1528
step time: 696876
Turn 1529
step time: 723556
Turn 1530
step time: 2092724
Turn 1531
step time: 714477
Turn 1532
step time: 690032
Turn 1533
step time: 705537
Turn 1534
step time: 811905
Turn 1535
50 collide 51
step time: 821193
Turn 1536
step time: 780616
Turn 1537
52 collide 53
step time: 827410
Turn 1538
step time: 713918
Turn 1539
71 collide 72
22 collide 23
step time: 770140
Turn 1540
step time: 700578
Turn 1541
step time: 740527
Turn 1542
83 collide 92
step time: 776705
Turn 1543
step time: 702883
Turn 1544
74 collide 83
step time: 772584
Turn 1545
step time: 725162
Turn 1546
46 collide 74
step time: 960249
Turn 1547
60 collide 61
step time: 873155
Turn 1548
82 collide 83
step time: 800590
Turn 1549
24 collide 36
61 collide 62
step time: 914711
Turn 1550
step time: 980920
Turn 1551
step time: 707283
Turn 1552
step time: 757010
Turn 1553
step time: 744926
Turn 1554
step time: 872247
Turn 1555
5 collide 15
step time: 928540
Turn 1556
step time: 778591
Turn 1557
46 collide 75
step time: 805970
Turn 1558
step time: 803803
Turn 1559
step time: 708679
Turn 1560
13 collide 23
66 collide 76
step time: 809670
Turn 1561
step time: 742343
Turn 1562
87 collide 88
22 collide 23
step time: 817213
Turn 1563
78 collide 88
step time: 789765
Turn 1564
step time: 750933
Turn 1565
step time: 730400
Turn 1566
13 collide 14
step time: 800032
Turn 1567
step time: 722368
Turn 1568
step time: 701974
Turn 1569
84 collide 85
step time: 803315
Turn 1570
step time: 752470
Turn 1571
46 collide 100
step time: 865263
Turn 1572
step time: 729003
Turn 1573
step time: 782782
Turn 1574
step time: 820216
Turn 1575
step time: 821054
Turn 1576
33 collide 45
85 collide 94
step time: 918483
Turn 1577
64 collide 100
32 collide 33
step time: 2162845
Turn 1578
31 collide 32
step time: 975055
Turn 1579
64 collide 73
step time: 789974
Turn 1580
step time: 766788
Turn 1581
23 collide 34
step time: 829156
Turn 1582
91 collide 92
73 collide 82
step time: 827969
Turn 1583
81 collide 82
step time: 795422
Turn 1584
28 collide 65
step time: 799054
Turn 1585
step time: 752749
Turn 1586
step time: 759872
Turn 1587
step time: 744438
Turn 1588
19 collide 54
step time: 1065288
Turn 1589
54 collide 55
step time: 888312
Turn 1590
step time: 720203
Turn 1591
step time: 750026
Turn 1592
52 collide 53
step time: 915968
Turn 1593
step time: 721600
Turn 1594
step time: 710774
Turn 1595
77 collide 87
step time: 900394
Turn 1596
step time: 803594
Turn 1597
step time: 717899
Turn 1598
33 collide 34
step time: 752051
Turn 1599
step time: 773213
Turn 1600
62 collide 72
step time: 899486
Turn 1601
88 collide 98
step time: 739339
Turn 1602
78 collide 88
23 collide 34
step time: 869873
Turn 1603
step time: 918203
Turn 1604
82 collide 83
step time: 813860
Turn 1605
step time: 793258
Turn 1606
step time: 2038248
Turn 1607
5 collide 16
step time: 798775
Turn 1608
step time: 730400
Turn 1609
step time: 825175
Turn 1610
67 collide 77
step time: 1069690
Turn 1611
step time: 844311
Turn 1612
64 collide 72
step time: 795423
Turn 1613
62 collide 72
71 collide 72
16 collide 17
step time: 850806
Turn 1614
61 collide 62
step time: 876089
Turn 1615
step time: 965555
Turn 1616
step time: 884260
Turn 1617
16 collide 27
step time: 860864
Turn 1618
step time: 787530
Turn 1619
step time: 865473
Turn 1620
step time: 736126
Turn 1621
step time: 2122058
Turn 1622
step time: 832787
Turn 1623
step time: 837397
Turn 1624
46 collide 84
step time: 799822
Turn 1625
step time: 752330
Turn 1626
step time: 884610
Turn 1627
step time: 962413
Turn 1628
step time: 729632
Turn 1629
step time: 802616
Turn 1630
step time: 758406
Turn 1631
14 collide 15
step time: 821683
Turn 1632
13 collide 14
step time: 802895
Turn 1633
step time: 766019
Turn 1634
step time: 722508
Turn 1635
step time: 727536
Turn 1636
step time: 1910997
Turn 1637
step time: 711752
Turn 1638
step time: 703650
Turn 1639
step time: 865683
Turn 1640
79 collide 89
step time: 853321
Turn 1641
step time: 818540
Turn 1642
step time: 663842
Turn 1643
step time: 731448
Turn 1644
step time: 838653
Turn 1645
step time: 702324
Turn 1646
step time: 802615
Turn 1647
3 collide 4
step time: 766718
Turn 1648
step time: 693664
Turn 1649
step time: 679067
Turn 1650
step time: 677809
Turn 1651
step time: 674177
Turn 1652
step time: 798495
Turn 1653
84 collide 85
step time: 708400
Turn 1654
step time: 664959
Turn 1655
step time: 769301
Turn 1656
70 collide 71
step time: 843333
Turn 1657
step time: 809599
Turn 1658
69 collide 79
step time: 768673
Turn 1659
100 not see 9
step time: 897949
Turn 1660
step time: 693803
Turn 1661
step time: 606502
Turn 1662
4 collide 14
step time: 746604
Turn 1663
90 collide 91
4 collide 5
13 collide 14
step time: 804292
Turn 1664
16 collide 27
step time: 773003
Turn 1665
step time: 726628
Turn 1666
step time: 679486
Turn 1667
37 collide 55
step time: 823150
Turn 1668
step time: 1949619
Turn 1669
step time: 716363
Turn 1670
step time: 750096
Turn 1671
step time: 642121
Turn 1672
5 collide 6
step time: 680324
Turn 1673
step time: 634647
Turn 1674
4 collide 15
step time: 767486
Turn 1675
62 collide 63
step time: 787810
Turn 1676
step time: 733542
Turn 1677
step time: 681721
Turn 1678
step time: 698273
Turn 1679
step time: 775168
Turn 1680
step time: 779219
Turn 1681
14 collide 25
step time: 781454
Turn 1682
step time: 625638
Turn 1683
step time: 628711
Turn 1684
6 collide 7
15 collide 26
step time: 789346
Turn 1685
step time: 662724
Turn 1686
step time: 655949
Turn 1687
56 collide 76
step time: 758057
Turn 1688
step time: 733543
Turn 1689
step time: 670686
Turn 1690
step time: 737663
Turn 1691
step time: 712869
Turn 1692
step time: 799333
Turn 1693
7 collide 18
step time: 763784
Turn 1694
step time: 723276
Turn 1695
step time: 714825
Turn 1696
step time: 640235
Turn 1697
step time: 648755
Turn 1698
82 collide 91
step time: 689822
Turn 1699
97 collide 98
step time: 1941308
Turn 1700
12 collide 23
step time: 722158
Turn 1701
22 collide 34
step time: 775727
Turn 1702
step time: 720902
Turn 1703
80 collide 81
step time: 790254
Turn 1704
step time: 685981
Turn 1705
73 collide 100
23 collide 24
step time: 790464
Turn 1706
24 collide 36
step time: 866032
Turn 1707
20 collide 21
step time: 763085
Turn 1708
3 collide 14
73 collide 82
step time: 807924
Turn 1709
step time: 771188
Turn 1710
step time: 743460
Turn 1711
84 collide 94
step time: 857024
Turn 1712
step time: 712381
Turn 1713
66 collide 95
step time: 2227377
Turn 1714
step time: 898718
Turn 1715
43 collide 45
step time: 814838
Turn 1716
step time: 930705
Turn 1717
11 collide 12
step time: 858698
Turn 1718
88 collide 98
28 collide 65
step time: 907098
Turn 1719
step time: 796610
Turn 1720
63 collide 64
step time: 842635
Turn 1721
step time: 714337
Turn 1722
step time: 778242
Turn 1723
step time: 696387
Turn 1724
step time: 1581974
Turn 1725
step time: 697156
Turn 1726
step time: 727188
Turn 1727
22 collide 23
step time: 2096077
Turn 1728
step time: 749677
Turn 1729
step time: 741785
Turn 1730
62 collide 63
step time: 806946
Turn 1731
step time: 732914
Turn 1732
61 collide 62
step time: 903815
Turn 1733
step time: 722577
Turn 1734
step time: 723555
Turn 1735
step time: 778661
Turn 1736
step time: 748908
Turn 1737
step time: 779009
Turn 1738
step time: 825524
Turn 1739
step time: 781035
Turn 1740
step time: 760571
Turn 1741
step time: 1978742
Turn 1742
step time: 829085
Turn 1743
73 collide 81
34 collide 35
step time: 822871
Turn 1744
step time: 700159
Turn 1745
step time: 776914
Turn 1746
44 collide 52
step time: 746324
Turn 1747
12 collide 13
step time: 848152
Turn 1748
step time: 887194
Turn 1749
step time: 773702
Turn 1750
step time: 820495
Turn 1751
step time: 740736
Turn 1752
step time: 718806
Turn 1753
step time: 806946
Turn 1754
22 collide 33
step time: 872107
Turn 1755
step time: 779429
Turn 1756
step time: 763575
Turn 1757
step time: 753588
Turn 1758
step time: 768813
Turn 1759
step time: 746534
Turn 1760
step time: 743042
Turn 1761
step time: 695549
Turn 1762
42 collide 43
step time: 801429
Turn 1763
43 collide 45
step time: 800661
Turn 1764
51 collide 52
step time: 828108
Turn 1765
step time: 786204
Turn 1766
55 collide 64
7 collide 8
step time: 856464
Turn 1767
step time: 742133
Turn 1768
66 collide 76
step time: 925048
Turn 1769
step time: 775238
Turn 1770
step time: 2068978
Turn 1771
step time: 753936
Turn 1772
step time: 711054
Turn 1773
step time: 849130
Turn 1774
step time: 850038
Turn 1775
step time: 762667
Turn 1776
65 collide 66
step time: 801568
Turn 1777
56 collide 97
step time: 809530
Turn 1778
step time: 804362
Turn 1779
97 collide 98
step time: 945441
Turn 1780
88 collide 98
100 not see 8
step time: 878603
Turn 1781
step time: 909404
Turn 1782
step time: 784387
Turn 1783
13 collide 14
step time: 841867
Turn 1784
step time: 779219
Turn 1785
64 collide 72
step time: 2091746
java.io.EOFException
	at java.io.ObjectInputStream$BlockDataInputStream.peekByte(ObjectInputStream.java:2570)
	at java.io.ObjectInputStream.readObject0(ObjectInputStream.java:1314)
	at java.io.ObjectInputStream.readObject(ObjectInputStream.java:368)
	at shared.InputReader.run(InputReader.java:31)
Turn 1786
step time: 862749
Input chiuso
Turn 1787
step time: 771327
Connection closed with: /127.0.0.1:35208
Output chiuso
Turn 1788
step time: 778590
Turn 1789
47 collide 68
step time: 841377
Turn 1790
step time: 784876
Turn 1791
7 collide 18
step time: 936431
Turn 1792
82 collide 100
step time: 938946
Turn 1793
step time: 818540
Turn 1794
step time: 771467
Turn 1795
step time: 763784
Turn 1796
step time: 838235
Turn 1797
step time: 746812
Turn 1798
step time: 783410
Turn 1799
step time: 2350299
Turn 1800
71 collide 81
step time: 803105
Turn 1801
78 collide 88
step time: 834743
Turn 1802
step time: 744996
Turn 1803
step time: 747581
Turn 1804
step time: 751073
Turn 1805
14 collide 25
step time: 836211
Turn 1806
step time: 738501
Turn 1807
step time: 839492
Turn 1808
step time: 828457
Turn 1809
step time: 786623
Turn 1810
step time: 809879
Turn 1811
82 collide 91
41 collide 42
step time: 835511
Turn 1812
90 collide 91
step time: 782501
Turn 1813
100 not see 29
step time: 759594
Turn 1814
step time: 850248
Turn 1815
step time: 736406
Turn 1816
step time: 715245
Turn 1817
82 collide 83
step time: 785714
Turn 1818
step time: 627803
Turn 1819
step time: 728165
Turn 1820
step time: 672501
Turn 1821
step time: 670266
Turn 1822
step time: 667193
Turn 1823
14 collide 15
step time: 726140
Turn 1824
13 collide 14
step time: 752540
Turn 1825
step time: 668311
Turn 1826
step time: 689054
Turn 1827
step time: 655111
Turn 1828
71 collide 72
step time: 728515
Turn 1829
step time: 656019
Turn 1830
15 collide 26
42 collide 43
step time: 812883
Turn 1831
step time: 701067
Turn 1832
step time: 699670
Turn 1833
step time: 703581
Turn 1834
step time: 679346
Turn 1835
step time: 666007
Turn 1836
step time: 711892
Turn 1837
83 collide 92
step time: 783200
Turn 1838
step time: 741995
Turn 1839
step time: 694012
Turn 1840
step time: 689752
Turn 1841
step time: 683956
Turn 1842
42 collide 52
step time: 835861
Turn 1843
42 collide 43
step time: 783410
Turn 1844
step time: 672362
Turn 1845
step time: 679485
Turn 1846
step time: 704351
Turn 1847
2 collide 3
100 not see 7
step time: 1925384
Turn 1848
step time: 822591
Turn 1849
44 collide 52
70 collide 71
3 collide 14
step time: 798984
Turn 1850
73 collide 81
step time: 794514
Turn 1851
step time: 699809
Turn 1852
43 collide 45
step time: 813720
Turn 1853
step time: 746045
Turn 1854
step time: 711682
Turn 1855
step time: 707701
Turn 1856
step time: 732146
Turn 1857
14 collide 25
step time: 791650
Turn 1858
step time: 730191
Turn 1859
step time: 736406
Turn 1860
step time: 705537
Turn 1861
step time: 721041
Turn 1862
step time: 724604
Turn 1863
step time: 735359
Turn 1864
step time: 731378
Turn 1865
step time: 712451
Turn 1866
54 collide 63
step time: 760991
Turn 1867
step time: 716222
Turn 1868
step time: 701835
Turn 1869
step time: 703720
Turn 1870
step time: 844591
Turn 1871
step time: 685562
Turn 1872
step time: 685352
Turn 1873
step time: 711404
Turn 1874
step time: 668311
Turn 1875
62 collide 63
step time: 728933
Turn 1876
step time: 714197
Turn 1877
step time: 678158
Turn 1878
step time: 684514
Turn 1879
step time: 696736
Turn 1880
step time: 677041
Turn 1881
100 not see 6
step time: 747371
Turn 1882
step time: 662235
Turn 1883
step time: 675924
Turn 1884
step time: 639396
Turn 1885
61 collide 62
step time: 688845
Turn 1886
step time: 620261
Turn 1887
100 not see 18
step time: 692196
Turn 1888
step time: 617746
Turn 1889
step time: 693315
Turn 1890
step time: 667124
Turn 1891
step time: 636114
Turn 1892
step time: 670197
Turn 1893
88 collide 89
step time: 736896
Turn 1894
88 collide 98
step time: 675854
Turn 1895
step time: 609784
Turn 1896
step time: 712032
Turn 1897
step time: 1773340
Turn 1898
step time: 768185
Turn 1899
89 collide 99
step time: 649594
Turn 1900
step time: 618374
Turn 1901
step time: 601473
Turn 1902
step time: 634299
Turn 1903
60 collide 61
step time: 716432
Turn 1904
step time: 634578
Turn 1905
step time: 786973
Turn 1906
51 collide 61
step time: 700648
Turn 1907
step time: 592533
Turn 1908
step time: 588622
Turn 1909
62 collide 63
step time: 733334
Turn 1910
step time: 651410
Turn 1911
step time: 600496
Turn 1912
step time: 752889
Turn 1913
step time: 656508
Turn 1914
step time: 1778368
Turn 1915
step time: 672571
Turn 1916
step time: 667822
Turn 1917
21 collide 33
step time: 801220
Turn 1918
step time: 697715
Turn 1919
step time: 685143
Turn 1920
step time: 660628
Turn 1921
step time: 653784
Turn 1922
step time: 689335
Turn 1923
step time: 684794
Turn 1924
step time: 690241
Turn 1925
step time: 775448
Turn 1926
10 collide 11
step time: 716362
Turn 1927
step time: 714616
Turn 1928
step time: 714127
Turn 1929
100 not see 17
step time: 728515
Turn 1930
step time: 727816
Turn 1931
100 not see 39
step time: 698832
Turn 1932
step time: 1715092
Turn 1933
step time: 685353
Turn 1934
100 not see 5
step time: 743321
Turn 1935
step time: 676482
Turn 1936
step time: 732356
Turn 1937
step time: 713429
Turn 1938
50 collide 51
step time: 719994
Turn 1939
step time: 667683
Turn 1940
step time: 621238
Turn 1941
step time: 694642
Turn 1942
2 collide 13
step time: 750863
Turn 1943
step time: 865543
Turn 1944
step time: 766927
Turn 1945
step time: 626337
Turn 1946
step time: 616419
Turn 1947
step time: 571650
Turn 1948
step time: 627664
Turn 1949
step time: 569207
Turn 1950
step time: 626406
Turn 1951
13 collide 14
step time: 684305
Turn 1952
step time: 579962
Turn 1953
step time: 620121
Turn 1954
step time: 587504
Turn 1955
step time: 593162
Turn 1956
step time: 602311
Turn 1957
11 collide 12
step time: 712172
Turn 1958
step time: 635206
Turn 1959
step time: 570603
Turn 1960
step time: 562572
Turn 1961
100 not see 4
step time: 652947
Turn 1962
step time: 600006
Turn 1963
step time: 584013
Turn 1964
step time: 657695
Turn 1965
step time: 647638
Turn 1966
step time: 630807
Turn 1967
step time: 634229
Turn 1968
step time: 584712
Turn 1969
step time: 1720679
Turn 1970
step time: 736336
Turn 1971
step time: 639258
Turn 1972
17 collide 18
step time: 621796
Turn 1973
step time: 581080
Turn 1974
14 collide 15
step time: 622286
Turn 1975
step time: 577936
Turn 1976
step time: 646800
